@<TRIPOS>MOLECULE
lauric acid
 38 37 0 0 0
SMALL
GASTEIGER

@<TRIPOS>ATOM
      1 C           1.0071    0.0707   -0.0860 C.3     1  UNL1       -0.0653
      2 C           2.5260    0.0618   -0.0795 C.3     1  UNL1       -0.0559
      3 C           3.0627   -1.0750    0.7851 C.3     1  UNL1       -0.0533
      4 C           4.5886   -1.0883    0.7932 C.3     1  UNL1       -0.0531
      5 C           5.1129   -2.2299    1.6591 C.3     1  UNL1       -0.0531
      6 C           6.6376   -2.2491    1.6733 C.3     1  UNL1       -0.0531
      7 C           7.1557   -3.3940    2.5394 C.3     1  UNL1       -0.0531
      8 C           8.6801   -3.4134    2.5541 C.3     1  UNL1       -0.0530
      9 C           9.2117   -4.5554    3.4178 C.3     1  UNL1       -0.0526
     10 C          10.7375   -4.5530    3.4160 C.3     1  UNL1       -0.0430
     11 C          11.3127   -5.6803    4.2685 C.3     1  UNL1        0.0448
     12 C          12.8228   -5.6587    4.2520 C.2     1  UNL1        0.3047
     13 O          13.5156   -4.8566    3.6453 O.2     1  UNL1       -0.2510
     14 O          13.3602   -6.6497    5.0017 O.3     1  UNL1       -0.4806
     15 H           0.6351    0.8895   -0.7088 H       1  UNL1        0.0230
     16 H           0.6133    0.2050    0.9266 H       1  UNL1        0.0230
     17 H           0.6131   -0.8692   -0.4856 H       1  UNL1        0.0230
     18 H           2.8932    1.0232    0.2982 H       1  UNL1        0.0263
     19 H           2.8929   -0.0456   -1.1069 H       1  UNL1        0.0263
     20 H           2.6891   -2.0345    0.4071 H       1  UNL1        0.0265
     21 H           2.6910   -0.9656    1.8114 H       1  UNL1        0.0265
     22 H           4.9659   -0.1317    1.1747 H       1  UNL1        0.0265
     23 H           4.9640   -1.1994   -0.2314 H       1  UNL1        0.0265
     24 H           4.7360   -3.1865    1.2770 H       1  UNL1        0.0265
     25 H           4.7363   -2.1198    2.6834 H       1  UNL1        0.0265
     26 H           7.0159   -1.2937    2.0572 H       1  UNL1        0.0265
     27 H           7.0157   -2.3587    0.6495 H       1  UNL1        0.0265
     28 H           6.7771   -4.3487    2.1545 H       1  UNL1        0.0265
     29 H           6.7771   -3.2834    3.5628 H       1  UNL1        0.0265
     30 H           9.0558   -2.4562    2.9364 H       1  UNL1        0.0265
     31 H           9.0558   -3.5207    1.5290 H       1  UNL1        0.0265
     32 H           8.8397   -5.5134    3.0352 H       1  UNL1        0.0265
     33 H           8.8397   -4.4481    4.4438 H       1  UNL1        0.0265
     34 H          11.1028   -3.5881    3.7896 H       1  UNL1        0.0270
     35 H          11.1027   -4.6499    2.3857 H       1  UNL1        0.0270
     36 H          10.9757   -6.6484    3.8812 H       1  UNL1        0.0377
     37 H          10.9758   -5.5712    5.3055 H       1  UNL1        0.0377
     38 H          12.6941   -7.2185    5.4322 H       1  UNL1        0.2951
@<TRIPOS>BOND
     1     1     2    1
     2     2     3    1
     3     3     4    1
     4     4     5    1
     5     5     6    1
     6     6     7    1
     7     7     8    1
     8     8     9    1
     9     9    10    1
    10    10    11    1
    11    11    12    1
    12    12    13    2
    13    12    14    1
    14     1    15    1
    15     1    16    1
    16     1    17    1
    17     2    18    1
    18     2    19    1
    19     3    20    1
    20     3    21    1
    21     4    22    1
    22     4    23    1
    23     5    24    1
    24     5    25    1
    25     6    26    1
    26     6    27    1
    27     7    28    1
    28     7    29    1
    29     8    30    1
    30     8    31    1
    31     9    32    1
    32     9    33    1
    33    10    34    1
    34    10    35    1
    35    11    36    1
    36    11    37    1
    37    14    38    1
@<TRIPOS>MOLECULE
myristic acid
 44 43 0 0 0
SMALL
GASTEIGER

@<TRIPOS>ATOM
      1 C           0.8773   -0.0771   -0.0107 C.3     1  UNL1       -0.0653
      2 C           2.3952   -0.0742   -0.0146 C.3     1  UNL1       -0.0559
      3 C           2.9288    0.7861   -1.1538 C.3     1  UNL1       -0.0533
      4 C           4.4519    0.7953   -1.1629 C.3     1  UNL1       -0.0531
      5 C           4.9706    1.6566   -2.3066 C.3     1  UNL1       -0.0531
      6 C           6.4922    1.6670   -2.3173 C.3     1  UNL1       -0.0531
      7 C           7.0086    2.5278   -3.4607 C.3     1  UNL1       -0.0531
      8 C           8.5304    2.5373   -3.4733 C.3     1  UNL1       -0.0531
      9 C           9.0448    3.3993   -4.6181 C.3     1  UNL1       -0.0531
     10 C          10.5672    3.4125   -4.6356 C.3     1  UNL1       -0.0530
     11 C          11.0901    4.2745   -5.7808 C.3     1  UNL1       -0.0526
     12 C          12.6155    4.2734   -5.7824 C.3     1  UNL1       -0.0430
     13 C          13.1890    5.1219   -6.9127 C.3     1  UNL1        0.0448
     14 C          14.7018    5.0980   -6.8844 C.2     1  UNL1        0.3047
     15 O          15.3816    4.4886   -6.0750 O.2     1  UNL1       -0.2510
     16 O          15.2487    5.8392   -7.8720 O.3     1  UNL1       -0.4806
     17 H           0.5006   -0.6958    0.8085 H       1  UNL1        0.0230
     18 H           0.4871   -0.4779   -0.9518 H       1  UNL1        0.0230
     19 H           0.4872    0.9378    0.1175 H       1  UNL1        0.0230
     20 H           2.7626   -1.1018   -0.1189 H       1  UNL1        0.0263
     21 H           2.7627    0.3072    0.9452 H       1  UNL1        0.0263
     22 H           2.5559    1.8124   -1.0498 H       1  UNL1        0.0265
     23 H           2.5580    0.4034   -2.1127 H       1  UNL1        0.0265
     24 H           4.8305   -0.2286   -1.2697 H       1  UNL1        0.0265
     25 H           4.8282    1.1826   -0.2082 H       1  UNL1        0.0265
     26 H           4.5939    2.6815   -2.2016 H       1  UNL1        0.0265
     27 H           4.5961    1.2708   -3.2628 H       1  UNL1        0.0265
     28 H           6.8701    0.6427   -2.4236 H       1  UNL1        0.0265
     29 H           6.8680    2.0539   -1.3622 H       1  UNL1        0.0265
     30 H           6.6317    3.5524   -3.3538 H       1  UNL1        0.0265
     31 H           6.6317    2.1420   -4.4158 H       1  UNL1        0.0265
     32 H           8.9066    1.5123   -3.5794 H       1  UNL1        0.0265
     33 H           8.9066    2.9227   -2.5175 H       1  UNL1        0.0265
     34 H           8.6659    4.4227   -4.5093 H       1  UNL1        0.0265
     35 H           8.6659    3.0118   -5.5715 H       1  UNL1        0.0265
     36 H          10.9425    2.3869   -4.7402 H       1  UNL1        0.0265
     37 H          10.9426    3.7965   -3.6790 H       1  UNL1        0.0265
     38 H          10.7161    5.2993   -5.6725 H       1  UNL1        0.0265
     39 H          10.7138    3.8889   -6.7354 H       1  UNL1        0.0265
     40 H          12.9778    3.2424   -5.8760 H       1  UNL1        0.0270
     41 H          12.9801    4.6491   -4.8187 H       1  UNL1        0.0270
     42 H          12.8547    6.1593   -6.8063 H       1  UNL1        0.0377
     43 H          12.8524    4.7317   -7.8790 H       1  UNL1        0.0377
     44 H          14.5908    6.2734   -8.4483 H       1  UNL1        0.2951
@<TRIPOS>BOND
     1     1     2    1
     2     2     3    1
     3     3     4    1
     4     4     5    1
     5     5     6    1
     6     6     7    1
     7     7     8    1
     8     8     9    1
     9     9    10    1
    10    10    11    1
    11    11    12    1
    12    12    13    1
    13    13    14    1
    14    14    15    2
    15    14    16    1
    16     1    17    1
    17     1    18    1
    18     1    19    1
    19     2    20    1
    20     2    21    1
    21     3    22    1
    22     3    23    1
    23     4    24    1
    24     4    25    1
    25     5    26    1
    26     5    27    1
    27     6    28    1
    28     6    29    1
    29     7    30    1
    30     7    31    1
    31     8    32    1
    32     8    33    1
    33     9    34    1
    34     9    35    1
    35    10    36    1
    36    10    37    1
    37    11    38    1
    38    11    39    1
    39    12    40    1
    40    12    41    1
    41    13    42    1
    42    13    43    1
    43    16    44    1
@<TRIPOS>MOLECULE
palmitic acid
 50 49 0 0 0
SMALL
GASTEIGER

@<TRIPOS>ATOM
      1 C           0.8877   -0.0604    0.0591 C.3     1  UNL1       -0.0653
      2 C           2.4035   -0.0535    0.0579 C.3     1  UNL1       -0.0559
      3 C           2.9324    1.3535   -0.1825 C.3     1  UNL1       -0.0533
      4 C           4.4525    1.3636   -0.1824 C.3     1  UNL1       -0.0531
      5 C           4.9714    2.7766   -0.4221 C.3     1  UNL1       -0.0531
      6 C           6.4901    2.7862   -0.4217 C.3     1  UNL1       -0.0531
      7 C           7.0044    4.1958   -0.6605 C.3     1  UNL1       -0.0531
      8 C           8.5235    4.2038   -0.6616 C.3     1  UNL1       -0.0531
      9 C           9.0378    5.6138   -0.8988 C.3     1  UNL1       -0.0531
     10 C          10.5576    5.6251   -0.9007 C.3     1  UNL1       -0.0531
     11 C          11.0696    7.0371   -1.1380 C.3     1  UNL1       -0.0531
     12 C          12.5896    7.0553   -1.1411 C.3     1  UNL1       -0.0530
     13 C          13.1089    8.4693   -1.3789 C.3     1  UNL1       -0.0526
     14 C          14.6336    8.4744   -1.3818 C.3     1  UNL1       -0.0430
     15 C          15.2036    9.8703   -1.6184 C.3     1  UNL1        0.0448
     16 C          16.7193    9.8253   -1.6129 C.2     1  UNL1        0.3047
     17 O          17.3903    8.8224   -1.4435 O.2     1  UNL1       -0.2510
     18 O          17.2672   11.0414   -1.8188 O.3     1  UNL1       -0.4806
     19 H           0.5094   -1.0713    0.2319 H       1  UNL1        0.0230
     20 H           0.4958    0.2926   -0.9017 H       1  UNL1        0.0230
     21 H           0.4956    0.5917    0.8479 H       1  UNL1        0.0230
     22 H           2.7725   -0.7296   -0.7217 H       1  UNL1        0.0263
     23 H           2.7723   -0.4321    1.0183 H       1  UNL1        0.0263
     24 H           2.5592    2.0302    0.5965 H       1  UNL1        0.0265
     25 H           2.5613    1.7320   -1.1434 H       1  UNL1        0.0265
     26 H           4.8331    0.6950   -0.9638 H       1  UNL1        0.0265
     27 H           4.8309    0.9913    0.7771 H       1  UNL1        0.0265
     28 H           4.5949    3.4491    0.3584 H       1  UNL1        0.0265
     29 H           4.5972    3.1530   -1.3821 H       1  UNL1        0.0265
     30 H           6.8684    2.1152   -1.2027 H       1  UNL1        0.0265
     31 H           6.8660    2.4112    0.5382 H       1  UNL1        0.0265
     32 H           6.6286    4.8676    0.1211 H       1  UNL1        0.0265
     33 H           6.6291    4.5727   -1.6199 H       1  UNL1        0.0265
     34 H           8.8993    3.5331   -1.4440 H       1  UNL1        0.0265
     35 H           8.8990    3.8261    0.2974 H       1  UNL1        0.0265
     36 H           8.6605    6.2835   -0.1161 H       1  UNL1        0.0265
     37 H           8.6604    5.9905   -1.8575 H       1  UNL1        0.0265
     38 H          10.9327    4.9538   -1.6830 H       1  UNL1        0.0265
     39 H          10.9327    5.2465    0.0581 H       1  UNL1        0.0265
     40 H          10.6902    7.7047   -0.3549 H       1  UNL1        0.0265
     41 H          10.6901    7.4119   -2.0963 H       1  UNL1        0.0265
     42 H          12.9659    6.3848   -1.9233 H       1  UNL1        0.0265
     43 H          12.9661    6.6774   -0.1827 H       1  UNL1        0.0265
     44 H          12.7343    9.1388   -0.5953 H       1  UNL1        0.0265
     45 H          12.7322    8.8467   -2.3371 H       1  UNL1        0.0265
     46 H          14.9976    7.7914   -2.1590 H       1  UNL1        0.0270
     47 H          14.9997    8.0844   -0.4239 H       1  UNL1        0.0270
     48 H          14.8716   10.5483   -0.8272 H       1  UNL1        0.0377
     49 H          14.8694   10.2506   -2.5874 H       1  UNL1        0.0377
     50 H          16.6172   11.7532   -1.9388 H       1  UNL1        0.2951
@<TRIPOS>BOND
     1     1     2    1
     2     2     3    1
     3     3     4    1
     4     4     5    1
     5     5     6    1
     6     6     7    1
     7     7     8    1
     8     8     9    1
     9     9    10    1
    10    10    11    1
    11    11    12    1
    12    12    13    1
    13    13    14    1
    14    14    15    1
    15    15    16    1
    16    16    17    2
    17    16    18    1
    18     1    19    1
    19     1    20    1
    20     1    21    1
    21     2    22    1
    22     2    23    1
    23     3    24    1
    24     3    25    1
    25     4    26    1
    26     4    27    1
    27     5    28    1
    28     5    29    1
    29     6    30    1
    30     6    31    1
    31     7    32    1
    32     7    33    1
    33     8    34    1
    34     8    35    1
    35     9    36    1
    36     9    37    1
    37    10    38    1
    38    10    39    1
    39    11    40    1
    40    11    41    1
    41    12    42    1
    42    12    43    1
    43    13    44    1
    44    13    45    1
    45    14    46    1
    46    14    47    1
    47    15    48    1
    48    15    49    1
    49    18    50    1
@<TRIPOS>MOLECULE
stearic acid
 56 55 0 0 0
SMALL
GASTEIGER

@<TRIPOS>ATOM
      1 C           1.0191   -0.0490   -0.0703 C.3     1  UNL1       -0.0653
      2 C           2.5332   -0.0465   -0.0764 C.3     1  UNL1       -0.0559
      3 C           3.0526   -1.0251   -1.1173 C.3     1  UNL1       -0.0533
      4 C           4.5707   -1.0274   -1.1256 C.3     1  UNL1       -0.0531
      5 C           5.0818   -2.0078   -2.1655 C.3     1  UNL1       -0.0531
      6 C           6.5987   -2.0089   -2.1726 C.3     1  UNL1       -0.0531
      7 C           7.1090   -2.9872   -3.2131 C.3     1  UNL1       -0.0531
      8 C           8.6255   -2.9893   -3.2182 C.3     1  UNL1       -0.0531
      9 C           9.1359   -3.9689   -4.2573 C.3     1  UNL1       -0.0531
     10 C          10.6525   -3.9725   -4.2611 C.3     1  UNL1       -0.0531
     11 C          11.1633   -4.9522   -5.3002 C.3     1  UNL1       -0.0531
     12 C          12.6807   -4.9563   -5.3045 C.3     1  UNL1       -0.0531
     13 C          13.1924   -5.9366   -6.3443 C.3     1  UNL1       -0.0531
     14 C          14.7113   -5.9446   -6.3528 C.3     1  UNL1       -0.0530
     15 C          15.2236   -6.9288   -7.3966 C.3     1  UNL1       -0.0526
     16 C          16.7439   -6.9408   -7.4093 C.3     1  UNL1       -0.0430
     17 C          17.3040   -7.9155   -8.4403 C.3     1  UNL1        0.0448
     18 C          18.8142   -7.8926   -8.4161 C.2     1  UNL1        0.3047
     19 O          19.4681   -7.1786   -7.6609 O.2     1  UNL1       -0.2510
     20 O          19.4287   -8.7099   -9.2804 O.3     1  UNL1       -0.4806
     21 H           0.6402    0.6524    0.6758 H       1  UNL1        0.0230
     22 H           0.6372   -1.0483    0.1661 H       1  UNL1        0.0230
     23 H           0.6301    0.2434   -1.0519 H       1  UNL1        0.0230
     24 H           2.9079   -0.3234    0.9157 H       1  UNL1        0.0263
     25 H           2.9009    0.9623   -0.2966 H       1  UNL1        0.0263
     26 H           2.6779   -0.7487   -2.1106 H       1  UNL1        0.0265
     27 H           2.6826   -2.0346   -0.8993 H       1  UNL1        0.0265
     28 H           4.9496   -1.3058   -0.1347 H       1  UNL1        0.0265
     29 H           4.9449   -0.0207   -1.3485 H       1  UNL1        0.0265
     30 H           4.7047   -1.7309   -3.1578 H       1  UNL1        0.0265
     31 H           4.7095   -3.0157   -1.9442 H       1  UNL1        0.0265
     32 H           6.9763   -2.2878   -1.1812 H       1  UNL1        0.0265
     33 H           6.9718   -1.0013   -2.3932 H       1  UNL1        0.0265
     34 H           6.7328   -2.7076   -4.2048 H       1  UNL1        0.0265
     35 H           6.7351   -3.9948   -2.9935 H       1  UNL1        0.0265
     36 H           9.0019   -3.2675   -2.2261 H       1  UNL1        0.0265
     37 H           8.9996   -1.9820   -3.4392 H       1  UNL1        0.0265
     38 H           8.7606   -3.6898   -5.2495 H       1  UNL1        0.0265
     39 H           8.7607   -4.9759   -4.0370 H       1  UNL1        0.0265
     40 H          11.0274   -4.2514   -3.2687 H       1  UNL1        0.0265
     41 H          11.0274   -2.9654   -4.4811 H       1  UNL1        0.0265
     42 H          10.7876   -4.6730   -6.2922 H       1  UNL1        0.0265
     43 H          10.7876   -5.9590   -5.0798 H       1  UNL1        0.0265
     44 H          13.0548   -5.2348   -4.3117 H       1  UNL1        0.0265
     45 H          13.0548   -3.9488   -5.5242 H       1  UNL1        0.0265
     46 H          12.8151   -5.6566   -7.3354 H       1  UNL1        0.0265
     47 H          12.8151   -6.9425   -6.1230 H       1  UNL1        0.0265
     48 H          15.0845   -6.2212   -5.3588 H       1  UNL1        0.0265
     49 H          15.0845   -4.9361   -6.5704 H       1  UNL1        0.0265
     50 H          14.8437   -6.6449   -8.3848 H       1  UNL1        0.0265
     51 H          14.8437   -7.9319   -7.1713 H       1  UNL1        0.0265
     52 H          17.1126   -7.2077   -6.4099 H       1  UNL1        0.0270
     53 H          17.1125   -5.9280   -7.6198 H       1  UNL1        0.0270
     54 H          16.9511   -7.6340   -9.4425 H       1  UNL1        0.0377
     55 H          16.9512   -8.9320   -8.2153 H       1  UNL1        0.0377
     56 H          18.8678   -9.2575   -9.8596 H       1  UNL1        0.2951
@<TRIPOS>BOND
     1     1     2    1
     2     2     3    1
     3     3     4    1
     4     4     5    1
     5     5     6    1
     6     6     7    1
     7     7     8    1
     8     8     9    1
     9     9    10    1
    10    10    11    1
    11    11    12    1
    12    12    13    1
    13    13    14    1
    14    14    15    1
    15    15    16    1
    16    16    17    1
    17    17    18    1
    18    18    19    2
    19    18    20    1
    20     1    21    1
    21     1    22    1
    22     1    23    1
    23     2    24    1
    24     2    25    1
    25     3    26    1
    26     3    27    1
    27     4    28    1
    28     4    29    1
    29     5    30    1
    30     5    31    1
    31     6    32    1
    32     6    33    1
    33     7    34    1
    34     7    35    1
    35     8    36    1
    36     8    37    1
    37     9    38    1
    38     9    39    1
    39    10    40    1
    40    10    41    1
    41    11    42    1
    42    11    43    1
    43    12    44    1
    44    12    45    1
    45    13    46    1
    46    13    47    1
    47    14    48    1
    48    14    49    1
    49    15    50    1
    50    15    51    1
    51    16    52    1
    52    16    53    1
    53    17    54    1
    54    17    55    1
    55    20    56    1
@<TRIPOS>MOLECULE
arachidic acid
 62 61 0 0 0
SMALL
GASTEIGER

@<TRIPOS>ATOM
      1 C           0.8862    0.0131    0.0884 C.3     1  UNL1       -0.0653
      2 C           2.4026    0.0164    0.0841 C.3     1  UNL1       -0.0559
      3 C           2.9325    0.4966   -1.2610 C.3     1  UNL1       -0.0533
      4 C           4.4540    0.5001   -1.2715 C.3     1  UNL1       -0.0531
      5 C           4.9697    0.9830   -2.6182 C.3     1  UNL1       -0.0531
      6 C           6.4889    0.9863   -2.6283 C.3     1  UNL1       -0.0531
      7 C           7.0005    1.4671   -3.9750 C.3     1  UNL1       -0.0531
      8 C           8.5187    1.4697   -3.9833 C.3     1  UNL1       -0.0531
      9 C           9.0295    1.9522   -5.3289 C.3     1  UNL1       -0.0531
     10 C          10.5475    1.9544   -5.3357 C.3     1  UNL1       -0.0531
     11 C          11.0601    2.4386   -6.6799 C.3     1  UNL1       -0.0531
     12 C          12.5787    2.4406   -6.6865 C.3     1  UNL1       -0.0531
     13 C          13.0921    2.9248   -8.0311 C.3     1  UNL1       -0.0531
     14 C          14.6117    2.9284   -8.0420 C.3     1  UNL1       -0.0531
     15 C          15.1224    3.4118   -9.3904 C.3     1  UNL1       -0.0531
     16 C          16.6430    3.4186   -9.4102 C.3     1  UNL1       -0.0530
     17 C          17.1631    3.9006  -10.7605 C.3     1  UNL1       -0.0526
     18 C          18.6870    3.9009  -10.7624 C.3     1  UNL1       -0.0430
     19 C          19.2604    4.3740  -12.0936 C.3     1  UNL1        0.0448
     20 C          20.7689    4.3580  -12.0494 C.2     1  UNL1        0.3047
     21 O          21.4515    4.0189  -11.0959 O.2     1  UNL1       -0.2510
     22 O          21.3273    4.7717  -13.2137 O.3     1  UNL1       -0.4806
     23 H           0.5097   -0.3322    1.0555 H       1  UNL1        0.0230
     24 H           0.4974   -0.6516   -0.6897 H       1  UNL1        0.0230
     25 H           0.4954    1.0193   -0.0939 H       1  UNL1        0.0230
     26 H           2.7730   -0.9944    0.2913 H       1  UNL1        0.0263
     27 H           2.7711    0.6687    0.8844 H       1  UNL1        0.0263
     28 H           2.5609    1.5078   -1.4682 H       1  UNL1        0.0265
     29 H           2.5606   -0.1544   -2.0618 H       1  UNL1        0.0265
     30 H           4.8317   -0.5100   -1.0711 H       1  UNL1        0.0265
     31 H           4.8321    1.1523   -0.4748 H       1  UNL1        0.0265
     32 H           4.5953    1.9939   -2.8216 H       1  UNL1        0.0265
     33 H           4.5948    0.3320   -3.4177 H       1  UNL1        0.0265
     34 H           6.8663   -0.0237   -2.4260 H       1  UNL1        0.0265
     35 H           6.8666    1.6394   -1.8320 H       1  UNL1        0.0265
     36 H           6.6250    2.4775   -4.1787 H       1  UNL1        0.0265
     37 H           6.6247    0.8145   -4.7726 H       1  UNL1        0.0265
     38 H           8.8953    0.4592   -3.7820 H       1  UNL1        0.0265
     39 H           8.8958    2.1215   -3.1856 H       1  UNL1        0.0265
     40 H           8.6528    2.9625   -5.5311 H       1  UNL1        0.0265
     41 H           8.6531    1.3004   -6.1270 H       1  UNL1        0.0265
     42 H          10.9232    0.9435   -5.1352 H       1  UNL1        0.0265
     43 H          10.9235    2.6048   -4.5364 H       1  UNL1        0.0265
     44 H          10.6841    3.4494   -6.8804 H       1  UNL1        0.0265
     45 H          10.6837    1.7879   -7.4789 H       1  UNL1        0.0265
     46 H          12.9535    1.4295   -6.4853 H       1  UNL1        0.0265
     47 H          12.9539    3.0910   -5.8868 H       1  UNL1        0.0265
     48 H          12.7152    3.9354   -8.2311 H       1  UNL1        0.0265
     49 H          12.7148    2.2740   -8.8295 H       1  UNL1        0.0265
     50 H          14.9870    1.9177   -7.8391 H       1  UNL1        0.0265
     51 H          14.9874    3.5796   -7.2430 H       1  UNL1        0.0265
     52 H          14.7426    4.4214   -9.5893 H       1  UNL1        0.0265
     53 H          14.7422    2.7589  -10.1855 H       1  UNL1        0.0265
     54 H          17.0183    2.4083   -9.2047 H       1  UNL1        0.0265
     55 H          17.0187    4.0701   -8.6113 H       1  UNL1        0.0265
     56 H          16.7867    4.9106  -10.9624 H       1  UNL1        0.0265
     57 H          16.7864    3.2469  -11.5563 H       1  UNL1        0.0265
     58 H          19.0510    2.8892  -10.5443 H       1  UNL1        0.0270
     59 H          19.0513    4.5479   -9.9546 H       1  UNL1        0.0270
     60 H          18.9269    5.3959  -12.3025 H       1  UNL1        0.0377
     61 H          18.9265    3.7132  -12.9006 H       1  UNL1        0.0377
     62 H          20.6753    5.0157  -13.8999 H       1  UNL1        0.2951
@<TRIPOS>BOND
     1     1     2    1
     2     2     3    1
     3     3     4    1
     4     4     5    1
     5     5     6    1
     6     6     7    1
     7     7     8    1
     8     8     9    1
     9     9    10    1
    10    10    11    1
    11    11    12    1
    12    12    13    1
    13    13    14    1
    14    14    15    1
    15    15    16    1
    16    16    17    1
    17    17    18    1
    18    18    19    1
    19    19    20    1
    20    20    21    2
    21    20    22    1
    22     1    23    1
    23     1    24    1
    24     1    25    1
    25     2    26    1
    26     2    27    1
    27     3    28    1
    28     3    29    1
    29     4    30    1
    30     4    31    1
    31     5    32    1
    32     5    33    1
    33     6    34    1
    34     6    35    1
    35     7    36    1
    36     7    37    1
    37     8    38    1
    38     8    39    1
    39     9    40    1
    40     9    41    1
    41    10    42    1
    42    10    43    1
    43    11    44    1
    44    11    45    1
    45    12    46    1
    46    12    47    1
    47    13    48    1
    48    13    49    1
    49    14    50    1
    50    14    51    1
    51    15    52    1
    52    15    53    1
    53    16    54    1
    54    16    55    1
    55    17    56    1
    56    17    57    1
    57    18    58    1
    58    18    59    1
    59    19    60    1
    60    19    61    1
    61    22    62    1
@<TRIPOS>MOLECULE
behenic acid
 68 67 0 0 0
SMALL
GASTEIGER

@<TRIPOS>ATOM
      1 C           1.0566    0.0197   -0.0772 C.3     1  UNL1       -0.0653
      2 C           2.5713    0.0170   -0.0748 C.3     1  UNL1       -0.0559
      3 C           3.0929   -0.3283    1.3119 C.3     1  UNL1       -0.0533
      4 C           4.6115   -0.3342    1.3191 C.3     1  UNL1       -0.0531
      5 C           5.1230   -0.6777    2.7067 C.3     1  UNL1       -0.0531
      6 C           6.6402   -0.6831    2.7118 C.3     1  UNL1       -0.0531
      7 C           7.1508   -1.0282    4.0979 C.3     1  UNL1       -0.0531
      8 C           8.6676   -1.0334    4.1019 C.3     1  UNL1       -0.0531
      9 C           9.1779   -1.3804    5.4873 C.3     1  UNL1       -0.0531
     10 C          10.6943   -1.3836    5.4916 C.3     1  UNL1       -0.0531
     11 C          11.2044   -1.7306    6.8769 C.3     1  UNL1       -0.0531
     12 C          12.7211   -1.7318    6.8818 C.3     1  UNL1       -0.0531
     13 C          13.2315   -2.0789    8.2673 C.3     1  UNL1       -0.0531
     14 C          14.7484   -2.0802    8.2724 C.3     1  UNL1       -0.0531
     15 C          15.2595   -2.4272    9.6580 C.3     1  UNL1       -0.0531
     16 C          16.7774   -2.4268    9.6646 C.3     1  UNL1       -0.0531
     17 C          17.2893   -2.7743   11.0516 C.3     1  UNL1       -0.0531
     18 C          18.8088   -2.7757   11.0656 C.3     1  UNL1       -0.0530
     19 C          19.3220   -3.1264   12.4575 C.3     1  UNL1       -0.0526
     20 C          20.8431   -3.1285   12.4740 C.3     1  UNL1       -0.0430
     21 C          21.4124   -3.4743   13.8548 C.3     1  UNL1        0.0448
     22 C          22.9193   -3.4591   13.8023 C.2     1  UNL1        0.3047
     23 O          23.5752   -3.2051   12.7941 O.2     1  UNL1       -0.2510
     24 O          23.5295   -3.7500   14.9645 O.3     1  UNL1       -0.4806
     25 H           0.6788    0.2676   -1.0725 H       1  UNL1        0.0230
     26 H           0.6715    0.7577    0.6336 H       1  UNL1        0.0230
     27 H           0.6691   -0.9640    0.2057 H       1  UNL1        0.0230
     28 H           2.9442    1.0022   -0.3787 H       1  UNL1        0.0263
     29 H           2.9418   -0.7122   -0.8048 H       1  UNL1        0.0263
     30 H           2.7179   -1.3128    1.6181 H       1  UNL1        0.0265
     31 H           2.7225    0.4010    2.0431 H       1  UNL1        0.0265
     32 H           4.9910    0.6493    1.0161 H       1  UNL1        0.0265
     33 H           4.9862   -1.0662    0.5932 H       1  UNL1        0.0265
     34 H           4.7459   -1.6616    3.0120 H       1  UNL1        0.0265
     35 H           4.7507    0.0536    3.4348 H       1  UNL1        0.0265
     36 H           7.0186    0.3011    2.4091 H       1  UNL1        0.0265
     37 H           7.0139   -1.4137    1.9839 H       1  UNL1        0.0265
     38 H           6.7731   -2.0125    4.4011 H       1  UNL1        0.0265
     39 H           6.7778   -0.2977    4.8264 H       1  UNL1        0.0265
     40 H           9.0453   -0.0487    3.8002 H       1  UNL1        0.0265
     41 H           9.0407   -1.7629    3.3726 H       1  UNL1        0.0265
     42 H           8.8010   -2.3657    5.7883 H       1  UNL1        0.0265
     43 H           8.8034   -0.6517    6.2168 H       1  UNL1        0.0265
     44 H          11.0710   -0.3983    5.1905 H       1  UNL1        0.0265
     45 H          11.0687   -2.1122    4.7620 H       1  UNL1        0.0265
     46 H          10.8290   -2.7165    7.1774 H       1  UNL1        0.0265
     47 H          10.8291   -1.0028    7.6067 H       1  UNL1        0.0265
     48 H          13.0966   -0.7459    6.5813 H       1  UNL1        0.0265
     49 H          13.0966   -2.4597    6.1520 H       1  UNL1        0.0265
     50 H          12.8558   -3.0648    8.5676 H       1  UNL1        0.0265
     51 H          12.8558   -1.3510    8.9969 H       1  UNL1        0.0265
     52 H          15.1234   -1.0941    7.9716 H       1  UNL1        0.0265
     53 H          15.1235   -2.8079    7.5423 H       1  UNL1        0.0265
     54 H          14.8843   -3.4136    9.9574 H       1  UNL1        0.0265
     55 H          14.8820   -1.7002   10.3875 H       1  UNL1        0.0265
     56 H          17.1505   -1.4401    9.3639 H       1  UNL1        0.0265
     57 H          17.1528   -3.1536    8.9338 H       1  UNL1        0.0265
     58 H          16.9126   -3.7603   11.3495 H       1  UNL1        0.0265
     59 H          16.9103   -2.0468   11.7796 H       1  UNL1        0.0265
     60 H          19.1821   -1.7887   10.7644 H       1  UNL1        0.0265
     61 H          19.1846   -3.5005   10.3323 H       1  UNL1        0.0265
     62 H          18.9427   -4.1127   12.7503 H       1  UNL1        0.0265
     63 H          18.9402   -2.3983   13.1832 H       1  UNL1        0.0265
     64 H          21.2099   -2.1418   12.1621 H       1  UNL1        0.0270
     65 H          21.2122   -3.8500   11.7333 H       1  UNL1        0.0270
     66 H          21.0660   -4.4699   14.1519 H       1  UNL1        0.0377
     67 H          21.0637   -2.7380   14.5866 H       1  UNL1        0.0377
     68 H          22.9434   -3.9407   15.7212 H       1  UNL1        0.2951
@<TRIPOS>BOND
     1     1     2    1
     2     2     3    1
     3     3     4    1
     4     4     5    1
     5     5     6    1
     6     6     7    1
     7     7     8    1
     8     8     9    1
     9     9    10    1
    10    10    11    1
    11    11    12    1
    12    12    13    1
    13    13    14    1
    14    14    15    1
    15    15    16    1
    16    16    17    1
    17    17    18    1
    18    18    19    1
    19    19    20    1
    20    20    21    1
    21    21    22    1
    22    22    23    2
    23    22    24    1
    24     1    25    1
    25     1    26    1
    26     1    27    1
    27     2    28    1
    28     2    29    1
    29     3    30    1
    30     3    31    1
    31     4    32    1
    32     4    33    1
    33     5    34    1
    34     5    35    1
    35     6    36    1
    36     6    37    1
    37     7    38    1
    38     7    39    1
    39     8    40    1
    40     8    41    1
    41     9    42    1
    42     9    43    1
    43    10    44    1
    44    10    45    1
    45    11    46    1
    46    11    47    1
    47    12    48    1
    48    12    49    1
    49    13    50    1
    50    13    51    1
    51    14    52    1
    52    14    53    1
    53    15    54    1
    54    15    55    1
    55    16    56    1
    56    16    57    1
    57    17    58    1
    58    17    59    1
    59    18    60    1
    60    18    61    1
    61    19    62    1
    62    19    63    1
    63    20    64    1
    64    20    65    1
    65    21    66    1
    66    21    67    1
    67    24    68    1
@<TRIPOS>MOLECULE
lignoceric acid
 74 73 0 0 0
SMALL
GASTEIGER

@<TRIPOS>ATOM
      1 C           1.0677   -0.0138    0.0710 C.3     1  UNL1       -0.0653
      2 C           2.5833   -0.0093    0.0743 C.3     1  UNL1       -0.0559
      3 C           3.1044    1.4011   -0.1550 C.3     1  UNL1       -0.0533
      4 C           4.6231    1.4100   -0.1544 C.3     1  UNL1       -0.0531
      5 C           5.1349    2.8213   -0.3819 C.3     1  UNL1       -0.0531
      6 C           6.6523    2.8276   -0.3809 C.3     1  UNL1       -0.0531
      7 C           7.1628    4.2382   -0.6063 C.3     1  UNL1       -0.0531
      8 C           8.6796    4.2435   -0.6050 C.3     1  UNL1       -0.0531
      9 C           9.1898    5.6542   -0.8284 C.3     1  UNL1       -0.0531
     10 C          10.7064    5.6590   -0.8291 C.3     1  UNL1       -0.0531
     11 C          11.2165    7.0697   -1.0525 C.3     1  UNL1       -0.0531
     12 C          12.7331    7.0745   -1.0532 C.3     1  UNL1       -0.0531
     13 C          13.2432    8.4855   -1.2746 C.3     1  UNL1       -0.0531
     14 C          14.7599    8.4904   -1.2754 C.3     1  UNL1       -0.0531
     15 C          15.2703    9.9014   -1.4967 C.3     1  UNL1       -0.0531
     16 C          16.7873    9.9066   -1.4975 C.3     1  UNL1       -0.0531
     17 C          17.2984   11.3182   -1.7169 C.3     1  UNL1       -0.0531
     18 C          18.8163   11.3244   -1.7199 C.3     1  UNL1       -0.0531
     19 C          19.3286   12.7371   -1.9395 C.3     1  UNL1       -0.0531
     20 C          20.8481   12.7501   -1.9436 C.3     1  UNL1       -0.0530
     21 C          21.3622   14.1697   -2.1622 C.3     1  UNL1       -0.0526
     22 C          22.8834   14.1839   -2.1664 C.3     1  UNL1       -0.0430
     23 C          23.4531   15.5883   -2.3808 C.3     1  UNL1        0.0448
     24 C          24.9614   15.5384   -2.3752 C.2     1  UNL1        0.3047
     25 O          25.6190   14.5129   -2.2202 O.2     1  UNL1       -0.2510
     26 O          25.5663   16.7294   -2.5572 O.3     1  UNL1       -0.4806
     27 H           0.6915   -1.0269    0.2358 H       1  UNL1        0.0230
     28 H           0.6839    0.3473   -0.8879 H       1  UNL1        0.0230
     29 H           0.6792    0.6338    0.8627 H       1  UNL1        0.0230
     30 H           2.9572   -0.6776   -0.7103 H       1  UNL1        0.0263
     31 H           2.9525   -0.3923    1.0331 H       1  UNL1        0.0263
     32 H           2.7305    2.0704    0.6297 H       1  UNL1        0.0265
     33 H           2.7330    1.7861   -1.1129 H       1  UNL1        0.0265
     34 H           5.0016    0.7461   -0.9414 H       1  UNL1        0.0265
     35 H           4.9992    1.0282    0.8027 H       1  UNL1        0.0265
     36 H           4.7591    3.4872    0.4045 H       1  UNL1        0.0265
     37 H           4.7615    3.2053   -1.3392 H       1  UNL1        0.0265
     38 H           7.0296    2.1638   -1.1685 H       1  UNL1        0.0265
     39 H           7.0272    2.4434    0.5757 H       1  UNL1        0.0265
     40 H           6.7863    4.9025    0.1813 H       1  UNL1        0.0265
     41 H           6.7886    4.6230   -1.5630 H       1  UNL1        0.0265
     42 H           9.0564    3.5805   -1.3936 H       1  UNL1        0.0265
     43 H           9.0541    3.8576    0.3511 H       1  UNL1        0.0265
     44 H           8.8142    6.3169   -0.0391 H       1  UNL1        0.0265
     45 H           8.8142    6.0407   -1.7839 H       1  UNL1        0.0265
     46 H          11.0820    4.9963   -1.6185 H       1  UNL1        0.0265
     47 H          11.0820    5.2725    0.1263 H       1  UNL1        0.0265
     48 H          10.8409    7.7324   -0.2631 H       1  UNL1        0.0265
     49 H          10.8409    7.4562   -2.0079 H       1  UNL1        0.0265
     50 H          13.1086    6.4128   -1.8435 H       1  UNL1        0.0265
     51 H          13.1087    6.6866   -0.0983 H       1  UNL1        0.0265
     52 H          12.8676    9.1471   -0.4843 H       1  UNL1        0.0265
     53 H          12.8676    8.8733   -2.2295 H       1  UNL1        0.0265
     54 H          15.1354    7.8287   -2.0656 H       1  UNL1        0.0265
     55 H          15.1354    8.1024   -0.3204 H       1  UNL1        0.0265
     56 H          14.8944   10.5629   -0.7064 H       1  UNL1        0.0265
     57 H          14.8944   10.2892   -2.4516 H       1  UNL1        0.0265
     58 H          17.1623    9.2458   -2.2887 H       1  UNL1        0.0265
     59 H          17.1624    9.5171   -0.5431 H       1  UNL1        0.0265
     60 H          16.9231   11.9779   -0.9249 H       1  UNL1        0.0265
     61 H          16.9208   11.7074   -2.6704 H       1  UNL1        0.0265
     62 H          19.1895   10.6632   -2.5118 H       1  UNL1        0.0265
     63 H          19.1918   10.9336   -0.7660 H       1  UNL1        0.0265
     64 H          18.9518   13.3953   -1.1471 H       1  UNL1        0.0265
     65 H          18.9494   13.1249   -2.8929 H       1  UNL1        0.0265
     66 H          21.2214   12.0895   -2.7354 H       1  UNL1        0.0265
     67 H          21.2238   12.3573   -0.9910 H       1  UNL1        0.0265
     68 H          20.9830   14.8233   -1.3677 H       1  UNL1        0.0265
     69 H          20.9807   14.5552   -3.1151 H       1  UNL1        0.0265
     70 H          23.2493   13.5149   -2.9557 H       1  UNL1        0.0270
     71 H          23.2517   13.7796   -1.2150 H       1  UNL1        0.0270
     72 H          23.1073   16.2502   -1.5776 H       1  UNL1        0.0377
     73 H          23.1048   15.9817   -3.3434 H       1  UNL1        0.0377
     74 H          24.9737   17.4966   -2.6730 H       1  UNL1        0.2951
@<TRIPOS>BOND
     1     1     2    1
     2     2     3    1
     3     3     4    1
     4     4     5    1
     5     5     6    1
     6     6     7    1
     7     7     8    1
     8     8     9    1
     9     9    10    1
    10    10    11    1
    11    11    12    1
    12    12    13    1
    13    13    14    1
    14    14    15    1
    15    15    16    1
    16    16    17    1
    17    17    18    1
    18    18    19    1
    19    19    20    1
    20    20    21    1
    21    21    22    1
    22    22    23    1
    23    23    24    1
    24    24    25    2
    25    24    26    1
    26     1    27    1
    27     1    28    1
    28     1    29    1
    29     2    30    1
    30     2    31    1
    31     3    32    1
    32     3    33    1
    33     4    34    1
    34     4    35    1
    35     5    36    1
    36     5    37    1
    37     6    38    1
    38     6    39    1
    39     7    40    1
    40     7    41    1
    41     8    42    1
    42     8    43    1
    43     9    44    1
    44     9    45    1
    45    10    46    1
    46    10    47    1
    47    11    48    1
    48    11    49    1
    49    12    50    1
    50    12    51    1
    51    13    52    1
    52    13    53    1
    53    14    54    1
    54    14    55    1
    55    15    56    1
    56    15    57    1
    57    16    58    1
    58    16    59    1
    59    17    60    1
    60    17    61    1
    61    18    62    1
    62    18    63    1
    63    19    64    1
    64    19    65    1
    65    20    66    1
    66    20    67    1
    67    21    68    1
    68    21    69    1
    69    22    70    1
    70    22    71    1
    71    23    72    1
    72    23    73    1
    73    26    74    1
